12
  B12 (Symmetry Ih)
 B                     0.00000000     0.00000000     2.00000000
 B                     1.44721360    -1.05146222     0.89442719
 B                     1.78885438     0.00000000    -0.89442719
 B                     0.55278640     1.70130162    -0.89442719
 B                    -1.44721360    -1.05146222    -0.89442719
 B                    -1.44721360     1.05146222    -0.89442719
 B                    -0.55278640    -1.70130162     0.89442719
 B                     0.00000000     0.00000000    -2.00000000
 B                    -0.55278640     1.70130162     0.89442719
 B                     1.44721360     1.05146222     0.89442719
 B                    -1.78885438     0.00000000     0.89442719
 B                     0.55278640    -1.70130162    -0.89442719
