24
 C24 (Symmetry Th)
 C                     2.00000000     3.00000000     4.00000000
 C                    -2.00000000    -3.00000000     4.00000000
 C                    -2.00000000     3.00000000    -4.00000000
 C                     2.00000000    -3.00000000    -4.00000000
 C                     4.00000000     2.00000000     3.00000000
 C                     4.00000000    -2.00000000    -3.00000000
 C                    -4.00000000    -2.00000000     3.00000000
 C                    -4.00000000     2.00000000    -3.00000000
 C                     3.00000000     4.00000000     2.00000000
 C                    -3.00000000     4.00000000    -2.00000000
 C                     3.00000000    -4.00000000    -2.00000000
 C                    -3.00000000    -4.00000000     2.00000000
 C                    -2.00000000    -3.00000000    -4.00000000
 C                     2.00000000     3.00000000    -4.00000000
 C                     2.00000000    -3.00000000     4.00000000
 C                    -2.00000000     3.00000000     4.00000000
 C                    -4.00000000    -2.00000000    -3.00000000
 C                    -4.00000000     2.00000000     3.00000000
 C                     4.00000000     2.00000000    -3.00000000
 C                     4.00000000    -2.00000000     3.00000000
 C                    -3.00000000    -4.00000000    -2.00000000
 C                     3.00000000    -4.00000000     2.00000000
 C                    -3.00000000     4.00000000     2.00000000
 C                     3.00000000     4.00000000    -2.00000000
